# Packages
 &PACKAGES
 useGMRedi      = .TRUE.,
 usePTRACERS    = .TRUE.,
 useGCHEM       = .TRUE.,
 useECCO        = .TRUE.,
 useGrdchk      = .FALSE.,
 usePROFILEs    = .TRUE.,
 &
