# ********************************
# Off-line optimization parameters
# ********************************
 &OPTIM
 optimcycle=1,
 numiter=1000,
 nfunc=2,
 fmin= 900.0,
 iprint=10,
 nupdate=4,
 &
 &M1QN3
# coldstart = .true.,
 &
